** Generated for: hspiceD
** Generated on: Dec  7 20:15:50 2025
** Design library name: NandiniSRAM
** Design cell name: rowDecoder512
** Design view name: schematic
.GLOBAL vss! vdd!

** Library name: NandiniSRAM
** Cell name: inverter
** View name: schematic
.subckt inverter_schematic a zn
xm0 zn a vss! vss! nch_svt_mac l=16e-9 nfin=1 w=10e-9 multi=1 nf=1 sa=90e-9 sb=90e-9
xm1 zn a vdd! vdd! pch_svt_mac l=16e-9 nfin=1 w=10e-9 multi=1 nf=1 sa=90e-9 sb=90e-9
.ends inverter_schematic
** End of subcircuit definition.

** Library name: NandiniSRAM
** Cell name: inv4
** View name: schematic
.subckt inv4 a zn
xm0 zn a vss! vss! nch_svt_mac l=16e-9 nfin=4 w=154e-9 multi=1 nf=1 sa=90e-9 sb=90e-9
xm1 zn a vdd! vdd! pch_svt_mac l=16e-9 nfin=4 w=154e-9 multi=1 nf=1 sa=90e-9 sb=90e-9
.ends inv4
** End of subcircuit definition.

** Library name: NandiniSRAM
** Cell name: and3_inv8
** View name: schematic
.subckt and3_inv8 a1 a2 a3 zn
xi2 a zn inv4
xm3 a a1 net11 vss! nch_svt_mac l=16e-9 nfin=4 w=154e-9 multi=1 nf=1 sa=90e-9 sb=90e-9
xm4 net11 a2 net1 vss! nch_svt_mac l=16e-9 nfin=4 w=154e-9 multi=1 nf=1 sa=90e-9 sb=90e-9
xm5 net1 a3 vss! vss! nch_svt_mac l=16e-9 nfin=4 w=154e-9 multi=1 nf=1 sa=90e-9 sb=90e-9
xm2 a a3 vdd! vdd! pch_svt_mac l=16e-9 nfin=4 w=154e-9 multi=1 nf=1 sa=90e-9 sb=90e-9
xm1 a a2 vdd! vdd! pch_svt_mac l=16e-9 nfin=4 w=154e-9 multi=1 nf=1 sa=90e-9 sb=90e-9
xm0 a a1 vdd! vdd! pch_svt_mac l=16e-9 nfin=4 w=154e-9 multi=1 nf=1 sa=90e-9 sb=90e-9
.ends and3_inv8
** End of subcircuit definition.

** Library name: NandiniSRAM
** Cell name: subblock2
** View name: schematic
.subckt subblock2_schematic ga3 ga4 ga5 pd1_0 pd1_1 pd1_2 pd1_3 pd1_4 pd1_5 pd1_6 pd1_7
xi54 a5b a5 inverter_schematic
xi53 a4b a4 inverter_schematic
xi52 a3b a3 inverter_schematic
xi33 ga5 a5b inverter_schematic
xi34 ga4 a4b inverter_schematic
xi35 ga3 a3b inverter_schematic
xi45 a5b a4b a3 pd1_6 and3_inv8
xi46 a5b a4 a3b pd1_5 and3_inv8
xi50 a5 a4 a3b pd1_1 and3_inv8
xi49 a5 a4b a3 pd1_2 and3_inv8
xi48 a5 a4b a3b pd1_3 and3_inv8
xi47 a5b a4 a3 pd1_4 and3_inv8
xi44 a5b a4b a3b pd1_7 and3_inv8
xi51 a5 a4 a3 pd1_0 and3_inv8
.ends subblock2_schematic
** End of subcircuit definition.

** Library name: NandiniSRAM
** Cell name: and4
** View name: schematic
.subckt and4_schematic a1 a2 a3 a4 zn
xi5 net4 zn inv4
xm3 net4 a1 net2 vss! nch_svt_mac l=16e-9 nfin=4 w=154e-9 multi=1 nf=1 sa=90e-9 sb=90e-9
xm4 net2 a2 net3 vss! nch_svt_mac l=16e-9 nfin=4 w=154e-9 multi=1 nf=1 sa=90e-9 sb=90e-9
xm5 net3 a3 vss! vss! nch_svt_mac l=16e-9 nfin=4 w=154e-9 multi=1 nf=1 sa=90e-9 sb=90e-9
xm7 vss! a4 vss! vss! nch_svt_mac l=16e-9 nfin=4 w=154e-9 multi=1 nf=1 sa=90e-9 sb=90e-9
xm6 net4 a4 vdd! vdd! pch_svt_mac l=16e-9 nfin=4 w=154e-9 multi=1 nf=1 sa=90e-9 sb=90e-9
xm2 net4 a3 vdd! vdd! pch_svt_mac l=16e-9 nfin=4 w=154e-9 multi=1 nf=1 sa=90e-9 sb=90e-9
xm1 net4 a2 vdd! vdd! pch_svt_mac l=16e-9 nfin=4 w=154e-9 multi=1 nf=1 sa=90e-9 sb=90e-9
xm0 net4 a1 vdd! vdd! pch_svt_mac l=16e-9 nfin=4 w=154e-9 multi=1 nf=1 sa=90e-9 sb=90e-9
.ends and4_schematic
** End of subcircuit definition.

** Library name: NandiniSRAM
** Cell name: subblock1
** View name: schematic
.subckt subblock1_schematic ga0 ga1 ga2 gclk pd0_0 pd0_1 pd0_2 pd0_3 pd0_4 pd0_5 pd0_6 pd0_7
xi26 a0 a1b a2b clk pd0_6 and4_schematic
xi25 a0b a1b a2b clk pd0_7 and4_schematic
xi31 a0b a1 a2 clk pd0_1 and4_schematic
xi32 a0 a1 a2 clk pd0_0 and4_schematic
xi29 a0b a1b a2 clk pd0_3 and4_schematic
xi30 a0 a1b a2 clk pd0_2 and4_schematic
xi28 a0 a1 a2b clk pd0_4 and4_schematic
xi27 a0b a1 a2b clk pd0_5 and4_schematic
xi37 net2 clk inverter_schematic
xi36 a0b a0 inverter_schematic
xi35 a1b a1 inverter_schematic
xi34 a2b a2 inverter_schematic
xi33 gclk net2 inverter_schematic
xi23 ga1 a1b inverter_schematic
xi22 ga2 a2b inverter_schematic
xi24 ga0 a0b inverter_schematic
.ends subblock1_schematic
** End of subcircuit definition.

** Library name: NandiniSRAM
** Cell name: subblock3
** View name: schematic
.subckt subblock3_schematic ga6 ga7 ga8 pd2_0 pd2_1 pd2_2 pd2_3 pd2_4 pd2_5 pd2_6 pd2_7
xi12 a8b a7b a6 pd2_6 and3_inv8
xi11 a8b a7b a6b pd2_7 and3_inv8
xi13 a8b a7 a6b pd2_5 and3_inv8
xi14 a8b a7 a6 pd2_4 and3_inv8
xi15 a8 a7b a6b pd2_3 and3_inv8
xi16 a8 a7b a6 pd2_2 and3_inv8
xi17 a8 a7 a6b pd2_1 and3_inv8
xi18 a8 a7 a6 pd2_0 and3_inv8
xi21 a6b a6 inverter_schematic
xi8 ga8 a8b inverter_schematic
xi9 ga7 a7b inverter_schematic
xi20 a7b a7 inverter_schematic
xi19 a8b a8 inverter_schematic
xi10 ga6 a6b inverter_schematic
.ends subblock3_schematic
** End of subcircuit definition.

** Library name: NandiniSRAM
** Cell name: and3
** View name: schematic
.subckt and3_schematic a1 a2 a3 zn
xm5 net2 a3 vss! vss! nch_svt_mac l=16e-9 nfin=4 w=154e-9 multi=1 nf=1 sa=90e-9 sb=90e-9
xm3 a a1 net1 vss! nch_svt_mac l=16e-9 nfin=4 w=154e-9 multi=1 nf=1 sa=90e-9 sb=90e-9
xm4 net1 a2 net2 vss! nch_svt_mac l=16e-9 nfin=4 w=154e-9 multi=1 nf=1 sa=90e-9 sb=90e-9
xm2 a a3 vdd! vdd! pch_svt_mac l=16e-9 nfin=4 w=154e-9 multi=1 nf=1 sa=90e-9 sb=90e-9
xm1 a a2 vdd! vdd! pch_svt_mac l=16e-9 nfin=4 w=154e-9 multi=1 nf=1 sa=90e-9 sb=90e-9
xm0 a a1 vdd! vdd! pch_svt_mac l=16e-9 nfin=4 w=154e-9 multi=1 nf=1 sa=90e-9 sb=90e-9
xi6 a zn inverter_schematic
.ends and3_schematic
** End of subcircuit definition.

** Library name: NandiniSRAM
** Cell name: Inv16
** View name: schematic
.subckt Inv16 a zn
xm0 zn a vss! vss! nch_svt_mac l=16e-9 nfin=16 w=730e-9 multi=1 nf=1 sa=90e-9 sb=90e-9
xm1 zn a vdd! vdd! pch_svt_mac l=16e-9 nfin=16 w=730e-9 multi=1 nf=1 sa=90e-9 sb=90e-9
.ends Inv16
** End of subcircuit definition.

** Library name: NandiniSRAM
** Cell name: rowDecoder512
** View name: schematic
xi2116 ga3 ga4 ga5 net15 net14 net13 net16 net8 net2 net17 net18 subblock2_schematic
xi2115 ga0 ga1 ga2 gclk net7 net6 net5 net4 net3 net11 net10 net9 subblock1_schematic
xi2117 ga6 ga7 ga8 net19 net20 net21 net22 net23 net1 net12 net24 subblock3_schematic
xi_and_511 net19 net15 net7 net536 and3_schematic
xi_and_510 net19 net15 net6 net535 and3_schematic
xi_and_509 net19 net15 net5 net534 and3_schematic
xi_and_508 net19 net15 net4 net533 and3_schematic
xi_and_507 net19 net15 net3 net532 and3_schematic
xi_and_506 net19 net15 net11 net531 and3_schematic
xi_and_505 net19 net15 net10 net530 and3_schematic
xi_and_504 net19 net15 net9 net529 and3_schematic
xi_and_503 net19 net14 net7 net528 and3_schematic
xi_and_502 net19 net14 net6 net527 and3_schematic
xi_and_501 net19 net14 net5 net526 and3_schematic
xi_and_500 net19 net14 net4 net525 and3_schematic
xi_and_499 net19 net14 net3 net524 and3_schematic
xi_and_498 net19 net14 net11 net523 and3_schematic
xi_and_497 net19 net14 net10 net522 and3_schematic
xi_and_496 net19 net14 net9 net521 and3_schematic
xi_and_495 net19 net13 net7 net520 and3_schematic
xi_and_494 net19 net13 net6 net519 and3_schematic
xi_and_493 net19 net13 net5 net518 and3_schematic
xi_and_492 net19 net13 net4 net517 and3_schematic
xi_and_491 net19 net13 net3 net516 and3_schematic
xi_and_490 net19 net13 net11 net515 and3_schematic
xi_and_489 net19 net13 net10 net514 and3_schematic
xi_and_488 net19 net13 net9 net513 and3_schematic
xi_and_487 net19 net16 net7 net512 and3_schematic
xi_and_486 net19 net16 net6 net511 and3_schematic
xi_and_485 net19 net16 net5 net510 and3_schematic
xi_and_484 net19 net16 net4 net509 and3_schematic
xi_and_483 net19 net16 net3 net508 and3_schematic
xi_and_482 net19 net16 net11 net507 and3_schematic
xi_and_481 net19 net16 net10 net506 and3_schematic
xi_and_480 net19 net16 net9 net505 and3_schematic
xi_and_479 net19 net8 net7 net504 and3_schematic
xi_and_478 net19 net8 net6 net503 and3_schematic
xi_and_477 net19 net8 net5 net502 and3_schematic
xi_and_476 net19 net8 net4 net501 and3_schematic
xi_and_475 net19 net8 net3 net500 and3_schematic
xi_and_474 net19 net8 net11 net499 and3_schematic
xi_and_473 net19 net8 net10 net498 and3_schematic
xi_and_472 net19 net8 net9 net497 and3_schematic
xi_and_471 net19 net2 net7 net496 and3_schematic
xi_and_470 net19 net2 net6 net495 and3_schematic
xi_and_469 net19 net2 net5 net494 and3_schematic
xi_and_468 net19 net2 net4 net493 and3_schematic
xi_and_467 net19 net2 net3 net492 and3_schematic
xi_and_466 net19 net2 net11 net491 and3_schematic
xi_and_465 net19 net2 net10 net490 and3_schematic
xi_and_464 net19 net2 net9 net489 and3_schematic
xi_and_463 net19 net17 net7 net488 and3_schematic
xi_and_462 net19 net17 net6 net487 and3_schematic
xi_and_461 net19 net17 net5 net486 and3_schematic
xi_and_460 net19 net17 net4 net485 and3_schematic
xi_and_459 net19 net17 net3 net484 and3_schematic
xi_and_458 net19 net17 net11 net483 and3_schematic
xi_and_457 net19 net17 net10 net482 and3_schematic
xi_and_456 net19 net17 net9 net481 and3_schematic
xi_and_455 net19 net18 net7 net480 and3_schematic
xi_and_454 net19 net18 net6 net479 and3_schematic
xi_and_453 net19 net18 net5 net478 and3_schematic
xi_and_452 net19 net18 net4 net477 and3_schematic
xi_and_451 net19 net18 net3 net476 and3_schematic
xi_and_450 net19 net18 net11 net475 and3_schematic
xi_and_449 net19 net18 net10 net474 and3_schematic
xi_and_448 net19 net18 net9 net473 and3_schematic
xi_and_447 net20 net15 net7 net472 and3_schematic
xi_and_446 net20 net15 net6 net471 and3_schematic
xi_and_445 net20 net15 net5 net470 and3_schematic
xi_and_444 net20 net15 net4 net469 and3_schematic
xi_and_443 net20 net15 net3 net468 and3_schematic
xi_and_442 net20 net15 net11 net467 and3_schematic
xi_and_441 net20 net15 net10 net466 and3_schematic
xi_and_440 net20 net15 net9 net465 and3_schematic
xi_and_439 net20 net14 net7 net464 and3_schematic
xi_and_438 net20 net14 net6 net463 and3_schematic
xi_and_437 net20 net14 net5 net462 and3_schematic
xi_and_436 net20 net14 net4 net461 and3_schematic
xi_and_435 net20 net14 net3 net460 and3_schematic
xi_and_434 net20 net14 net11 net459 and3_schematic
xi_and_433 net20 net14 net10 net458 and3_schematic
xi_and_432 net20 net14 net9 net457 and3_schematic
xi_and_431 net20 net13 net7 net456 and3_schematic
xi_and_430 net20 net13 net6 net455 and3_schematic
xi_and_429 net20 net13 net5 net454 and3_schematic
xi_and_428 net20 net13 net4 net453 and3_schematic
xi_and_427 net20 net13 net3 net452 and3_schematic
xi_and_426 net20 net13 net11 net451 and3_schematic
xi_and_425 net20 net13 net10 net450 and3_schematic
xi_and_424 net20 net13 net9 net449 and3_schematic
xi_and_423 net20 net16 net7 net448 and3_schematic
xi_and_422 net20 net16 net6 net447 and3_schematic
xi_and_421 net20 net16 net5 net446 and3_schematic
xi_and_420 net20 net16 net4 net445 and3_schematic
xi_and_419 net20 net16 net3 net444 and3_schematic
xi_and_418 net20 net16 net11 net443 and3_schematic
xi_and_417 net20 net16 net10 net442 and3_schematic
xi_and_416 net20 net16 net9 net441 and3_schematic
xi_and_415 net20 net8 net7 net440 and3_schematic
xi_and_414 net20 net8 net6 net439 and3_schematic
xi_and_413 net20 net8 net5 net438 and3_schematic
xi_and_412 net20 net8 net4 net437 and3_schematic
xi_and_411 net20 net8 net3 net436 and3_schematic
xi_and_410 net20 net8 net11 net435 and3_schematic
xi_and_409 net20 net8 net10 net434 and3_schematic
xi_and_408 net20 net8 net9 net433 and3_schematic
xi_and_407 net20 net2 net7 net432 and3_schematic
xi_and_406 net20 net2 net6 net431 and3_schematic
xi_and_405 net20 net2 net5 net430 and3_schematic
xi_and_404 net20 net2 net4 net429 and3_schematic
xi_and_403 net20 net2 net3 net428 and3_schematic
xi_and_402 net20 net2 net11 net427 and3_schematic
xi_and_401 net20 net2 net10 net426 and3_schematic
xi_and_400 net20 net2 net9 net425 and3_schematic
xi_and_399 net20 net17 net7 net424 and3_schematic
xi_and_398 net20 net17 net6 net423 and3_schematic
xi_and_397 net20 net17 net5 net422 and3_schematic
xi_and_396 net20 net17 net4 net421 and3_schematic
xi_and_395 net20 net17 net3 net420 and3_schematic
xi_and_394 net20 net17 net11 net419 and3_schematic
xi_and_393 net20 net17 net10 net418 and3_schematic
xi_and_392 net20 net17 net9 net417 and3_schematic
xi_and_391 net20 net18 net7 net416 and3_schematic
xi_and_390 net20 net18 net6 net415 and3_schematic
xi_and_389 net20 net18 net5 net414 and3_schematic
xi_and_388 net20 net18 net4 net413 and3_schematic
xi_and_387 net20 net18 net3 net412 and3_schematic
xi_and_386 net20 net18 net11 net411 and3_schematic
xi_and_385 net20 net18 net10 net410 and3_schematic
xi_and_384 net20 net18 net9 net409 and3_schematic
xi_and_383 net21 net15 net7 net408 and3_schematic
xi_and_382 net21 net15 net6 net407 and3_schematic
xi_and_381 net21 net15 net5 net406 and3_schematic
xi_and_380 net21 net15 net4 net405 and3_schematic
xi_and_379 net21 net15 net3 net404 and3_schematic
xi_and_378 net21 net15 net11 net403 and3_schematic
xi_and_377 net21 net15 net10 net402 and3_schematic
xi_and_376 net21 net15 net9 net401 and3_schematic
xi_and_375 net21 net14 net7 net400 and3_schematic
xi_and_374 net21 net14 net6 net399 and3_schematic
xi_and_373 net21 net14 net5 net398 and3_schematic
xi_and_372 net21 net14 net4 net397 and3_schematic
xi_and_371 net21 net14 net3 net396 and3_schematic
xi_and_370 net21 net14 net11 net395 and3_schematic
xi_and_369 net21 net14 net10 net394 and3_schematic
xi_and_368 net21 net14 net9 net393 and3_schematic
xi_and_367 net21 net13 net7 net392 and3_schematic
xi_and_366 net21 net13 net6 net391 and3_schematic
xi_and_365 net21 net13 net5 net390 and3_schematic
xi_and_364 net21 net13 net4 net389 and3_schematic
xi_and_363 net21 net13 net3 net388 and3_schematic
xi_and_362 net21 net13 net11 net387 and3_schematic
xi_and_361 net21 net13 net10 net386 and3_schematic
xi_and_360 net21 net13 net9 net385 and3_schematic
xi_and_359 net21 net16 net7 net384 and3_schematic
xi_and_358 net21 net16 net6 net383 and3_schematic
xi_and_357 net21 net16 net5 net382 and3_schematic
xi_and_356 net21 net16 net4 net381 and3_schematic
xi_and_355 net21 net16 net3 net380 and3_schematic
xi_and_354 net21 net16 net11 net379 and3_schematic
xi_and_353 net21 net16 net10 net378 and3_schematic
xi_and_352 net21 net16 net9 net377 and3_schematic
xi_and_351 net21 net8 net7 net376 and3_schematic
xi_and_350 net21 net8 net6 net375 and3_schematic
xi_and_349 net21 net8 net5 net374 and3_schematic
xi_and_348 net21 net8 net4 net373 and3_schematic
xi_and_347 net21 net8 net3 net372 and3_schematic
xi_and_346 net21 net8 net11 net371 and3_schematic
xi_and_345 net21 net8 net10 net370 and3_schematic
xi_and_344 net21 net8 net9 net369 and3_schematic
xi_and_343 net21 net2 net7 net368 and3_schematic
xi_and_342 net21 net2 net6 net367 and3_schematic
xi_and_341 net21 net2 net5 net366 and3_schematic
xi_and_340 net21 net2 net4 net365 and3_schematic
xi_and_339 net21 net2 net3 net364 and3_schematic
xi_and_338 net21 net2 net11 net363 and3_schematic
xi_and_337 net21 net2 net10 net362 and3_schematic
xi_and_336 net21 net2 net9 net361 and3_schematic
xi_and_335 net21 net17 net7 net360 and3_schematic
xi_and_334 net21 net17 net6 net359 and3_schematic
xi_and_333 net21 net17 net5 net358 and3_schematic
xi_and_332 net21 net17 net4 net357 and3_schematic
xi_and_331 net21 net17 net3 net356 and3_schematic
xi_and_330 net21 net17 net11 net355 and3_schematic
xi_and_329 net21 net17 net10 net354 and3_schematic
xi_and_328 net21 net17 net9 net353 and3_schematic
xi_and_327 net21 net18 net7 net352 and3_schematic
xi_and_326 net21 net18 net6 net351 and3_schematic
xi_and_325 net21 net18 net5 net350 and3_schematic
xi_and_324 net21 net18 net4 net349 and3_schematic
xi_and_323 net21 net18 net3 net348 and3_schematic
xi_and_322 net21 net18 net11 net347 and3_schematic
xi_and_321 net21 net18 net10 net346 and3_schematic
xi_and_320 net21 net18 net9 net345 and3_schematic
xi_and_319 net22 net15 net7 net344 and3_schematic
xi_and_318 net22 net15 net6 net343 and3_schematic
xi_and_317 net22 net15 net5 net342 and3_schematic
xi_and_316 net22 net15 net4 net341 and3_schematic
xi_and_315 net22 net15 net3 net340 and3_schematic
xi_and_314 net22 net15 net11 net339 and3_schematic
xi_and_313 net22 net15 net10 net338 and3_schematic
xi_and_312 net22 net15 net9 net337 and3_schematic
xi_and_311 net22 net14 net7 net336 and3_schematic
xi_and_310 net22 net14 net6 net335 and3_schematic
xi_and_309 net22 net14 net5 net334 and3_schematic
xi_and_308 net22 net14 net4 net333 and3_schematic
xi_and_307 net22 net14 net3 net332 and3_schematic
xi_and_306 net22 net14 net11 net331 and3_schematic
xi_and_305 net22 net14 net10 net330 and3_schematic
xi_and_304 net22 net14 net9 net329 and3_schematic
xi_and_303 net22 net13 net7 net328 and3_schematic
xi_and_302 net22 net13 net6 net327 and3_schematic
xi_and_301 net22 net13 net5 net326 and3_schematic
xi_and_300 net22 net13 net4 net325 and3_schematic
xi_and_299 net22 net13 net3 net324 and3_schematic
xi_and_298 net22 net13 net11 net323 and3_schematic
xi_and_297 net22 net13 net10 net322 and3_schematic
xi_and_296 net22 net13 net9 net321 and3_schematic
xi_and_295 net22 net16 net7 net320 and3_schematic
xi_and_294 net22 net16 net6 net319 and3_schematic
xi_and_293 net22 net16 net5 net318 and3_schematic
xi_and_292 net22 net16 net4 net317 and3_schematic
xi_and_291 net22 net16 net3 net316 and3_schematic
xi_and_290 net22 net16 net11 net315 and3_schematic
xi_and_289 net22 net16 net10 net314 and3_schematic
xi_and_288 net22 net16 net9 net313 and3_schematic
xi_and_287 net22 net8 net7 net312 and3_schematic
xi_and_286 net22 net8 net6 net311 and3_schematic
xi_and_285 net22 net8 net5 net310 and3_schematic
xi_and_284 net22 net8 net4 net309 and3_schematic
xi_and_283 net22 net8 net3 net308 and3_schematic
xi_and_282 net22 net8 net11 net307 and3_schematic
xi_and_281 net22 net8 net10 net306 and3_schematic
xi_and_280 net22 net8 net9 net305 and3_schematic
xi_and_279 net22 net2 net7 net304 and3_schematic
xi_and_278 net22 net2 net6 net303 and3_schematic
xi_and_277 net22 net2 net5 net302 and3_schematic
xi_and_276 net22 net2 net4 net301 and3_schematic
xi_and_275 net22 net2 net3 net300 and3_schematic
xi_and_274 net22 net2 net11 net299 and3_schematic
xi_and_273 net22 net2 net10 net298 and3_schematic
xi_and_272 net22 net2 net9 net297 and3_schematic
xi_and_271 net22 net17 net7 net296 and3_schematic
xi_and_270 net22 net17 net6 net295 and3_schematic
xi_and_269 net22 net17 net5 net294 and3_schematic
xi_and_268 net22 net17 net4 net293 and3_schematic
xi_and_267 net22 net17 net3 net292 and3_schematic
xi_and_266 net22 net17 net11 net291 and3_schematic
xi_and_265 net22 net17 net10 net290 and3_schematic
xi_and_264 net22 net17 net9 net289 and3_schematic
xi_and_263 net22 net18 net7 net288 and3_schematic
xi_and_262 net22 net18 net6 net287 and3_schematic
xi_and_261 net22 net18 net5 net286 and3_schematic
xi_and_260 net22 net18 net4 net285 and3_schematic
xi_and_259 net22 net18 net3 net284 and3_schematic
xi_and_258 net22 net18 net11 net283 and3_schematic
xi_and_257 net22 net18 net10 net282 and3_schematic
xi_and_256 net22 net18 net9 net281 and3_schematic
xi_and_255 net23 net15 net7 net280 and3_schematic
xi_and_254 net23 net15 net6 net279 and3_schematic
xi_and_253 net23 net15 net5 net278 and3_schematic
xi_and_252 net23 net15 net4 net277 and3_schematic
xi_and_251 net23 net15 net3 net276 and3_schematic
xi_and_250 net23 net15 net11 net275 and3_schematic
xi_and_249 net23 net15 net10 net274 and3_schematic
xi_and_248 net23 net15 net9 net273 and3_schematic
xi_and_247 net23 net14 net7 net272 and3_schematic
xi_and_246 net23 net14 net6 net271 and3_schematic
xi_and_245 net23 net14 net5 net270 and3_schematic
xi_and_244 net23 net14 net4 net269 and3_schematic
xi_and_243 net23 net14 net3 net268 and3_schematic
xi_and_242 net23 net14 net11 net267 and3_schematic
xi_and_241 net23 net14 net10 net266 and3_schematic
xi_and_240 net23 net14 net9 net265 and3_schematic
xi_and_239 net23 net13 net7 net264 and3_schematic
xi_and_238 net23 net13 net6 net263 and3_schematic
xi_and_237 net23 net13 net5 net262 and3_schematic
xi_and_236 net23 net13 net4 net261 and3_schematic
xi_and_235 net23 net13 net3 net260 and3_schematic
xi_and_234 net23 net13 net11 net259 and3_schematic
xi_and_233 net23 net13 net10 net258 and3_schematic
xi_and_232 net23 net13 net9 net257 and3_schematic
xi_and_231 net23 net16 net7 net256 and3_schematic
xi_and_230 net23 net16 net6 net255 and3_schematic
xi_and_229 net23 net16 net5 net254 and3_schematic
xi_and_228 net23 net16 net4 net253 and3_schematic
xi_and_227 net23 net16 net3 net252 and3_schematic
xi_and_226 net23 net16 net11 net251 and3_schematic
xi_and_225 net23 net16 net10 net250 and3_schematic
xi_and_224 net23 net16 net9 net249 and3_schematic
xi_and_223 net23 net8 net7 net248 and3_schematic
xi_and_222 net23 net8 net6 net247 and3_schematic
xi_and_221 net23 net8 net5 net246 and3_schematic
xi_and_220 net23 net8 net4 net245 and3_schematic
xi_and_219 net23 net8 net3 net244 and3_schematic
xi_and_218 net23 net8 net11 net243 and3_schematic
xi_and_217 net23 net8 net10 net242 and3_schematic
xi_and_216 net23 net8 net9 net241 and3_schematic
xi_and_215 net23 net2 net7 net240 and3_schematic
xi_and_214 net23 net2 net6 net239 and3_schematic
xi_and_213 net23 net2 net5 net238 and3_schematic
xi_and_212 net23 net2 net4 net237 and3_schematic
xi_and_211 net23 net2 net3 net236 and3_schematic
xi_and_210 net23 net2 net11 net235 and3_schematic
xi_and_209 net23 net2 net10 net234 and3_schematic
xi_and_208 net23 net2 net9 net233 and3_schematic
xi_and_207 net23 net17 net7 net232 and3_schematic
xi_and_206 net23 net17 net6 net231 and3_schematic
xi_and_205 net23 net17 net5 net230 and3_schematic
xi_and_204 net23 net17 net4 net229 and3_schematic
xi_and_203 net23 net17 net3 net228 and3_schematic
xi_and_202 net23 net17 net11 net227 and3_schematic
xi_and_201 net23 net17 net10 net226 and3_schematic
xi_and_200 net23 net17 net9 net225 and3_schematic
xi_and_199 net23 net18 net7 net224 and3_schematic
xi_and_198 net23 net18 net6 net223 and3_schematic
xi_and_197 net23 net18 net5 net222 and3_schematic
xi_and_196 net23 net18 net4 net221 and3_schematic
xi_and_195 net23 net18 net3 net220 and3_schematic
xi_and_194 net23 net18 net11 net219 and3_schematic
xi_and_193 net23 net18 net10 net218 and3_schematic
xi_and_192 net23 net18 net9 net217 and3_schematic
xi_and_191 net1 net15 net7 net216 and3_schematic
xi_and_190 net1 net15 net6 net215 and3_schematic
xi_and_189 net1 net15 net5 net214 and3_schematic
xi_and_188 net1 net15 net4 net213 and3_schematic
xi_and_187 net1 net15 net3 net212 and3_schematic
xi_and_186 net1 net15 net11 net211 and3_schematic
xi_and_185 net1 net15 net10 net210 and3_schematic
xi_and_184 net1 net15 net9 net209 and3_schematic
xi_and_183 net1 net14 net7 net208 and3_schematic
xi_and_182 net1 net14 net6 net207 and3_schematic
xi_and_181 net1 net14 net5 net206 and3_schematic
xi_and_180 net1 net14 net4 net205 and3_schematic
xi_and_179 net1 net14 net3 net204 and3_schematic
xi_and_178 net1 net14 net11 net203 and3_schematic
xi_and_177 net1 net14 net10 net202 and3_schematic
xi_and_176 net1 net14 net9 net201 and3_schematic
xi_and_175 net1 net13 net7 net200 and3_schematic
xi_and_174 net1 net13 net6 net199 and3_schematic
xi_and_173 net1 net13 net5 net198 and3_schematic
xi_and_172 net1 net13 net4 net197 and3_schematic
xi_and_171 net1 net13 net3 net196 and3_schematic
xi_and_170 net1 net13 net11 net195 and3_schematic
xi_and_169 net1 net13 net10 net194 and3_schematic
xi_and_168 net1 net13 net9 net193 and3_schematic
xi_and_167 net1 net16 net7 net192 and3_schematic
xi_and_166 net1 net16 net6 net191 and3_schematic
xi_and_165 net1 net16 net5 net190 and3_schematic
xi_and_164 net1 net16 net4 net189 and3_schematic
xi_and_163 net1 net16 net3 net188 and3_schematic
xi_and_162 net1 net16 net11 net187 and3_schematic
xi_and_161 net1 net16 net10 net186 and3_schematic
xi_and_160 net1 net16 net9 net185 and3_schematic
xi_and_159 net1 net8 net7 net184 and3_schematic
xi_and_158 net1 net8 net6 net183 and3_schematic
xi_and_157 net1 net8 net5 net182 and3_schematic
xi_and_156 net1 net8 net4 net181 and3_schematic
xi_and_155 net1 net8 net3 net180 and3_schematic
xi_and_154 net1 net8 net11 net179 and3_schematic
xi_and_153 net1 net8 net10 net178 and3_schematic
xi_and_152 net1 net8 net9 net177 and3_schematic
xi_and_151 net1 net2 net7 net176 and3_schematic
xi_and_150 net1 net2 net6 net175 and3_schematic
xi_and_149 net1 net2 net5 net174 and3_schematic
xi_and_148 net1 net2 net4 net173 and3_schematic
xi_and_147 net1 net2 net3 net172 and3_schematic
xi_and_146 net1 net2 net11 net171 and3_schematic
xi_and_145 net1 net2 net10 net170 and3_schematic
xi_and_144 net1 net2 net9 net169 and3_schematic
xi_and_143 net1 net17 net7 net168 and3_schematic
xi_and_142 net1 net17 net6 net167 and3_schematic
xi_and_141 net1 net17 net5 net166 and3_schematic
xi_and_140 net1 net17 net4 net165 and3_schematic
xi_and_139 net1 net17 net3 net164 and3_schematic
xi_and_138 net1 net17 net11 net163 and3_schematic
xi_and_137 net1 net17 net10 net162 and3_schematic
xi_and_136 net1 net17 net9 net161 and3_schematic
xi_and_135 net1 net18 net7 net160 and3_schematic
xi_and_134 net1 net18 net6 net159 and3_schematic
xi_and_133 net1 net18 net5 net158 and3_schematic
xi_and_132 net1 net18 net4 net157 and3_schematic
xi_and_131 net1 net18 net3 net156 and3_schematic
xi_and_130 net1 net18 net11 net155 and3_schematic
xi_and_129 net1 net18 net10 net154 and3_schematic
xi_and_128 net1 net18 net9 net153 and3_schematic
xi_and_127 net12 net15 net7 net152 and3_schematic
xi_and_126 net12 net15 net6 net151 and3_schematic
xi_and_125 net12 net15 net5 net150 and3_schematic
xi_and_124 net12 net15 net4 net149 and3_schematic
xi_and_123 net12 net15 net3 net148 and3_schematic
xi_and_122 net12 net15 net11 net147 and3_schematic
xi_and_121 net12 net15 net10 net146 and3_schematic
xi_and_120 net12 net15 net9 net145 and3_schematic
xi_and_119 net12 net14 net7 net144 and3_schematic
xi_and_118 net12 net14 net6 net143 and3_schematic
xi_and_117 net12 net14 net5 net142 and3_schematic
xi_and_116 net12 net14 net4 net141 and3_schematic
xi_and_115 net12 net14 net3 net140 and3_schematic
xi_and_114 net12 net14 net11 net139 and3_schematic
xi_and_113 net12 net14 net10 net138 and3_schematic
xi_and_112 net12 net14 net9 net137 and3_schematic
xi_and_111 net12 net13 net7 net136 and3_schematic
xi_and_110 net12 net13 net6 net135 and3_schematic
xi_and_109 net12 net13 net5 net134 and3_schematic
xi_and_108 net12 net13 net4 net133 and3_schematic
xi_and_107 net12 net13 net3 net132 and3_schematic
xi_and_106 net12 net13 net11 net131 and3_schematic
xi_and_105 net12 net13 net10 net130 and3_schematic
xi_and_104 net12 net13 net9 net129 and3_schematic
xi_and_103 net12 net16 net7 net128 and3_schematic
xi_and_102 net12 net16 net6 net127 and3_schematic
xi_and_101 net12 net16 net5 net126 and3_schematic
xi_and_100 net12 net16 net4 net125 and3_schematic
xi_and_99 net12 net16 net3 net124 and3_schematic
xi_and_98 net12 net16 net11 net123 and3_schematic
xi_and_97 net12 net16 net10 net122 and3_schematic
xi_and_96 net12 net16 net9 net121 and3_schematic
xi_and_95 net12 net8 net7 net120 and3_schematic
xi_and_94 net12 net8 net6 net119 and3_schematic
xi_and_93 net12 net8 net5 net118 and3_schematic
xi_and_92 net12 net8 net4 net117 and3_schematic
xi_and_91 net12 net8 net3 net116 and3_schematic
xi_and_90 net12 net8 net11 net115 and3_schematic
xi_and_89 net12 net8 net10 net114 and3_schematic
xi_and_88 net12 net8 net9 net113 and3_schematic
xi_and_87 net12 net2 net7 net112 and3_schematic
xi_and_86 net12 net2 net6 net111 and3_schematic
xi_and_85 net12 net2 net5 net110 and3_schematic
xi_and_84 net12 net2 net4 net109 and3_schematic
xi_and_83 net12 net2 net3 net108 and3_schematic
xi_and_82 net12 net2 net11 net107 and3_schematic
xi_and_81 net12 net2 net10 net106 and3_schematic
xi_and_80 net12 net2 net9 net105 and3_schematic
xi_and_79 net12 net17 net7 net104 and3_schematic
xi_and_78 net12 net17 net6 net103 and3_schematic
xi_and_77 net12 net17 net5 net102 and3_schematic
xi_and_76 net12 net17 net4 net101 and3_schematic
xi_and_75 net12 net17 net3 net100 and3_schematic
xi_and_74 net12 net17 net11 net99 and3_schematic
xi_and_73 net12 net17 net10 net98 and3_schematic
xi_and_72 net12 net17 net9 net97 and3_schematic
xi_and_71 net12 net18 net7 net96 and3_schematic
xi_and_70 net12 net18 net6 net95 and3_schematic
xi_and_69 net12 net18 net5 net94 and3_schematic
xi_and_68 net12 net18 net4 net93 and3_schematic
xi_and_67 net12 net18 net3 net92 and3_schematic
xi_and_66 net12 net18 net11 net91 and3_schematic
xi_and_65 net12 net18 net10 net90 and3_schematic
xi_and_64 net12 net18 net9 net89 and3_schematic
xi_and_63 net24 net15 net7 net88 and3_schematic
xi_and_62 net24 net15 net6 net87 and3_schematic
xi_and_61 net24 net15 net5 net86 and3_schematic
xi_and_60 net24 net15 net4 net85 and3_schematic
xi_and_59 net24 net15 net3 net84 and3_schematic
xi_and_58 net24 net15 net11 net83 and3_schematic
xi_and_57 net24 net15 net10 net82 and3_schematic
xi_and_56 net24 net15 net9 net81 and3_schematic
xi_and_55 net24 net14 net7 net80 and3_schematic
xi_and_54 net24 net14 net6 net79 and3_schematic
xi_and_53 net24 net14 net5 net78 and3_schematic
xi_and_52 net24 net14 net4 net77 and3_schematic
xi_and_51 net24 net14 net3 net76 and3_schematic
xi_and_50 net24 net14 net11 net75 and3_schematic
xi_and_49 net24 net14 net10 net74 and3_schematic
xi_and_48 net24 net14 net9 net73 and3_schematic
xi_and_47 net24 net13 net7 net72 and3_schematic
xi_and_46 net24 net13 net6 net71 and3_schematic
xi_and_45 net24 net13 net5 net70 and3_schematic
xi_and_44 net24 net13 net4 net69 and3_schematic
xi_and_43 net24 net13 net3 net68 and3_schematic
xi_and_42 net24 net13 net11 net67 and3_schematic
xi_and_41 net24 net13 net10 net66 and3_schematic
xi_and_40 net24 net13 net9 net65 and3_schematic
xi_and_39 net24 net16 net7 net64 and3_schematic
xi_and_38 net24 net16 net6 net63 and3_schematic
xi_and_37 net24 net16 net5 net62 and3_schematic
xi_and_36 net24 net16 net4 net61 and3_schematic
xi_and_35 net24 net16 net3 net60 and3_schematic
xi_and_34 net24 net16 net11 net59 and3_schematic
xi_and_33 net24 net16 net10 net58 and3_schematic
xi_and_32 net24 net16 net9 net57 and3_schematic
xi_and_31 net24 net8 net7 net56 and3_schematic
xi_and_30 net24 net8 net6 net55 and3_schematic
xi_and_29 net24 net8 net5 net54 and3_schematic
xi_and_28 net24 net8 net4 net53 and3_schematic
xi_and_27 net24 net8 net3 net52 and3_schematic